# xanthene_6_311G_dft
# Created by GaussView 6.0.16
#

#
#

@<TRIPOS>MOLECULE
Molecule Name
46 51
SMALL
NO_CHARGES


@<TRIPOS>ATOM
1 C1    -5.0957    -1.5484    -0.1335 C
2 C2    -5.1342    -2.7798     0.5091 C
3 C3    -3.9545    -3.3543     0.9719 C
4 C4    -2.7358    -2.7060     0.7982 C
5 C5    -2.6913    -1.4666     0.1577 C
6 C6    -3.8838    -0.8874    -0.3127 C
7 C7    -1.4265    -0.7513    -0.0305 C
8 C8    -1.2940     0.4595    -0.6159 C
9 C9    -2.4696     1.1088    -1.1981 C
10 C10    -3.8536     0.4220    -1.0131 C
11 O11    -4.8468     0.9632    -1.4377 O
12 O12    -2.3986     2.1475    -1.8203 O
13 O13    -0.3507    -1.4456     0.4475 O
14 C14     0.8986    -1.0254     0.1033 C
15 C15     1.1427     0.1623    -0.4772 C
16 C16     0.0401     1.1696    -0.6945 C
17 C17     1.9512    -2.0260     0.4424 C
18 C18     3.3428    -1.6665     0.0694 C
19 C19     3.6151    -0.4613    -0.5929 C
20 C20     2.5172     0.4939    -0.9232 C
21 O21     2.7285     1.5152    -1.5536 O
22 C22     0.1353     2.3231     0.3108 C
23 C23     0.3037     3.6320    -0.1365 C
24 C24     0.3862     4.6828     0.7701 C
25 C25     0.3038     4.4369     2.1369 C
26 C26     0.1364     3.1334     2.5925 C
27 C27     0.0522     2.0843     1.6836 C
28 C28     4.3811    -2.5460     0.3723 C
29 C29     5.6850    -2.2255     0.0189 C
30 C30     5.9564    -1.0280    -0.6409 C
31 C31     4.9253    -0.1490    -0.9478 C
32 O32     1.6618    -3.0667     0.9995 O
33 H33    -5.9968    -1.0801    -0.5084 H
34 H34    -6.0792    -3.2909     0.6462 H
35 H35    -3.9793    -4.3153     1.4713 H
36 H36    -1.8209    -3.1575     1.1558 H
37 H37     0.1512     1.6036    -1.6895 H
38 H38     0.3664     3.8275    -1.1997 H
39 H39     0.5134     5.6957     0.4070 H
40 H40     0.3683     5.2563     2.8429 H
41 H41     0.0705     2.9320     3.6552 H
42 H42    -0.0807     1.0737     2.0544 H
43 H43     4.1472    -3.4724     0.8807 H
44 H44     6.4916    -2.9087     0.2553 H
45 H45     6.9746    -0.7808    -0.9160 H
46 H46     5.1153     0.7852    -1.4601 H
@<TRIPOS>BOND
1 1 2 2
2 1 6 1
3 1 33 1
4 2 3 1
5 2 34 1
6 3 4 2
7 3 35 1
8 4 5 1
9 4 36 1
10 5 6 2
11 5 7 1
12 6 10 1
13 7 8 2
14 7 13 1
15 8 9 1
16 8 16 1
17 9 10 1
18 9 12 2
19 10 11 2
20 13 14 1
21 14 15 2
22 14 17 1
23 15 16 1
24 15 20 1
25 16 22 1
26 16 37 1
27 17 18 1
28 17 32 2
29 18 19 2
30 18 28 1
31 19 20 1
32 19 31 1
33 20 21 2
34 22 23 1
35 22 27 2
36 23 24 2
37 23 38 1
38 24 25 1
39 24 39 1
40 25 26 2
41 25 40 1
42 26 27 1
43 26 41 1
44 27 42 1
45 28 29 2
46 28 43 1
47 29 30 1
48 29 44 1
49 30 31 2
50 30 45 1
51 31 46 1
