REMARK  1 active torsions:
REMARK  status: ('A' for Active; 'I' for Inactive)
REMARK    1  A    between atoms: C16_16  and  C22_22 
ROOT
ATOM      1  C1  RES d   1      -5.096  -1.548  -0.134  0.00  0.00     0.016 A 
ATOM      2  C2  RES d   1      -5.134  -2.780   0.509  0.00  0.00     0.001 A 
ATOM      3  C3  RES d   1      -3.954  -3.354   0.972  0.00  0.00     0.001 A 
ATOM      4  C4  RES d   1      -2.736  -2.706   0.798  0.00  0.00     0.015 A 
ATOM      5  C5  RES d   1      -2.691  -1.467   0.158  0.00  0.00     0.013 A 
ATOM      6  C6  RES d   1      -3.884  -0.887  -0.313  0.00  0.00     0.031 A 
ATOM      7  C7  RES d   1      -1.427  -0.751  -0.030  0.00  0.00     0.099 A 
ATOM      8  C8  RES d   1      -1.294   0.460  -0.616  0.00  0.00     0.044 A 
ATOM      9  C9  RES d   1      -2.470   1.109  -1.198  0.00  0.00     0.232 A 
ATOM     10  C10 RES d   1      -3.854   0.422  -1.013  0.00  0.00     0.233 A 
ATOM     11  O11 RES d   1      -4.847   0.963  -1.438  0.00  0.00    -0.283 OA
ATOM     12  O12 RES d   1      -2.399   2.147  -1.820  0.00  0.00    -0.283 OA
ATOM     13  O13 RES d   1      -0.351  -1.446   0.448  0.00  0.00    -0.304 OA
ATOM     14  C14 RES d   1       0.899  -1.025   0.103  0.00  0.00     0.138 A 
ATOM     15  C15 RES d   1       1.143   0.162  -0.477  0.00  0.00     0.044 A 
ATOM     16  C16 RES d   1       0.040   1.170  -0.695  0.00  0.00     0.098 C 
ATOM     17  C17 RES d   1       1.951  -2.026   0.442  0.00  0.00     0.217 A 
ATOM     18  C18 RES d   1       3.343  -1.667   0.069  0.00  0.00     0.031 A 
ATOM     19  C19 RES d   1       3.615  -0.461  -0.593  0.00  0.00     0.029 A 
ATOM     20  C20 RES d   1       2.517   0.494  -0.923  0.00  0.00     0.193 A 
ATOM     21  O21 RES d   1       2.728   1.515  -1.554  0.00  0.00    -0.287 OA
ATOM     22  C28 RES d   1       4.381  -2.546   0.372  0.00  0.00     0.016 A 
ATOM     23  C29 RES d   1       5.685  -2.225   0.019  0.00  0.00     0.001 A 
ATOM     24  C30 RES d   1       5.956  -1.028  -0.641  0.00  0.00     0.001 A 
ATOM     25  C31 RES d   1       4.925  -0.149  -0.948  0.00  0.00     0.016 A 
ATOM     26  O32 RES d   1       1.662  -3.067   1.000  0.00  0.00    -0.284 OA
ENDROOT
BRANCH  16  27
ATOM     27  C22 RES d   1       0.135   2.323   0.311  0.00  0.00    -0.045 A 
ATOM     28  C23 RES d   1       0.304   3.632  -0.137  0.00  0.00     0.008 A 
ATOM     29  C24 RES d   1       0.386   4.683   0.770  0.00  0.00     0.001 A 
ATOM     30  C25 RES d   1       0.304   4.437   2.137  0.00  0.00     0.000 A 
ATOM     31  C26 RES d   1       0.136   3.133   2.592  0.00  0.00     0.001 A 
ATOM     32  C27 RES d   1       0.052   2.084   1.684  0.00  0.00     0.008 A 
ENDBRANCH  16  27
TORSDOF 1
